&NAMGFL
  YEZDIAG_NL(1)%LT1=.TRUE.,
  YEZDIAG_NL(2)%LT1=.TRUE.,
  YEZDIAG_NL(3)%LT1=.TRUE.,
  YEZDIAG_NL(4)%LT1=.TRUE.,
  YEZDIAG_NL(1)%LADV=.TRUE.,
  YEZDIAG_NL(2)%LADV=.TRUE.,
  YEZDIAG_NL(3)%LADV=.TRUE.,
  YEZDIAG_NL(4)%LADV=.TRUE.,
/
